simulator lang=spectre
global 0

XDUT (OUT) multitone

tran tran stop=500n maxstep=500p
save OUT

ahdl_include "multitone.va"
